modelo_bdgd2opendss/sub__5001462/5001992/CodCondutor_2023056072_5001992_------1-----.dss
New "Linecode.446-44B_1" nphases=1 basefreq=60 r1=3.5140 x1=0.1000 units=km normamps=44.00
New "Linecode.446-44B_2" nphases=2 basefreq=60 r1=3.5140 x1=0.1000 units=km normamps=44.00
New "Linecode.446-44B_3" nphases=3 basefreq=60 r1=3.5140 x1=0.1000 units=km normamps=44.00
New "Linecode.446-44B_4" nphases=4 basefreq=60 r1=3.5140 x1=0.1000 units=km normamps=44.00

New "Linecode.69-40B_1" nphases=1 basefreq=60 r1=3.5140 x1=0.1000 units=km normamps=44.00
New "Linecode.69-40B_2" nphases=2 basefreq=60 r1=3.5140 x1=0.1000 units=km normamps=44.00
New "Linecode.69-40B_3" nphases=3 basefreq=60 r1=3.5140 x1=0.1000 units=km normamps=44.00
New "Linecode.69-40B_4" nphases=4 basefreq=60 r1=3.5140 x1=0.1000 units=km normamps=44.00

New "Linecode.69-44_1" nphases=1 basefreq=60 r1=3.5140 x1=0.1000 units=km normamps=44.00
New "Linecode.69-44_2" nphases=2 basefreq=60 r1=3.5140 x1=0.1000 units=km normamps=44.00
New "Linecode.69-44_3" nphases=3 basefreq=60 r1=3.5140 x1=0.1000 units=km normamps=44.00
New "Linecode.69-44_4" nphases=4 basefreq=60 r1=3.5140 x1=0.1000 units=km normamps=44.00

New "Linecode.69-44B_1" nphases=1 basefreq=60 r1=3.5140 x1=0.1000 units=km normamps=44.00
New "Linecode.69-44B_2" nphases=2 basefreq=60 r1=3.5140 x1=0.1000 units=km normamps=44.00
New "Linecode.69-44B_3" nphases=3 basefreq=60 r1=3.5140 x1=0.1000 units=km normamps=44.00
New "Linecode.69-44B_4" nphases=4 basefreq=60 r1=3.5140 x1=0.1000 units=km normamps=44.00

New "Linecode.68-40B_1" nphases=1 basefreq=60 r1=2.1790 x1=0.1000 units=km normamps=59.00
New "Linecode.68-40B_2" nphases=2 basefreq=60 r1=2.1790 x1=0.1000 units=km normamps=59.00
New "Linecode.68-40B_3" nphases=3 basefreq=60 r1=2.1790 x1=0.1000 units=km normamps=59.00
New "Linecode.68-40B_4" nphases=4 basefreq=60 r1=2.1790 x1=0.1000 units=km normamps=59.00

New "Linecode.68-44B_1" nphases=1 basefreq=60 r1=2.1790 x1=0.1000 units=km normamps=59.00
New "Linecode.68-44B_2" nphases=2 basefreq=60 r1=2.1790 x1=0.1000 units=km normamps=59.00
New "Linecode.68-44B_3" nphases=3 basefreq=60 r1=2.1790 x1=0.1000 units=km normamps=59.00
New "Linecode.68-44B_4" nphases=4 basefreq=60 r1=2.1790 x1=0.1000 units=km normamps=59.00

New "Linecode.67-44B_1" nphases=1 basefreq=60 r1=1.3690 x1=0.1000 units=km normamps=80.00
New "Linecode.67-44B_2" nphases=2 basefreq=60 r1=1.3690 x1=0.1000 units=km normamps=80.00
New "Linecode.67-44B_3" nphases=3 basefreq=60 r1=1.3690 x1=0.1000 units=km normamps=80.00
New "Linecode.67-44B_4" nphases=4 basefreq=60 r1=1.3690 x1=0.1000 units=km normamps=80.00

New "Linecode.45-40B_1" nphases=1 basefreq=60 r1=0.9910 x1=0.1000 units=km normamps=100.00
New "Linecode.45-40B_2" nphases=2 basefreq=60 r1=0.9910 x1=0.1000 units=km normamps=100.00
New "Linecode.45-40B_3" nphases=3 basefreq=60 r1=0.9910 x1=0.1000 units=km normamps=100.00
New "Linecode.45-40B_4" nphases=4 basefreq=60 r1=0.9910 x1=0.1000 units=km normamps=100.00

New "Linecode.45-44B_1" nphases=1 basefreq=60 r1=0.9910 x1=0.1000 units=km normamps=100.00
New "Linecode.45-44B_2" nphases=2 basefreq=60 r1=0.9910 x1=0.1000 units=km normamps=100.00
New "Linecode.45-44B_3" nphases=3 basefreq=60 r1=0.9910 x1=0.1000 units=km normamps=100.00
New "Linecode.45-44B_4" nphases=4 basefreq=60 r1=0.9910 x1=0.1000 units=km normamps=100.00

New "Linecode.553-44B_1" nphases=1 basefreq=60 r1=0.7320 x1=0.1000 units=km normamps=122.00
New "Linecode.553-44B_2" nphases=2 basefreq=60 r1=0.7320 x1=0.1000 units=km normamps=122.00
New "Linecode.553-44B_3" nphases=3 basefreq=60 r1=0.7320 x1=0.1000 units=km normamps=122.00
New "Linecode.553-44B_4" nphases=4 basefreq=60 r1=0.7320 x1=0.1000 units=km normamps=122.00

New "Linecode.56-44B_1" nphases=1 basefreq=60 r1=0.7320 x1=0.1000 units=km normamps=122.00
New "Linecode.56-44B_2" nphases=2 basefreq=60 r1=0.7320 x1=0.1000 units=km normamps=122.00
New "Linecode.56-44B_3" nphases=3 basefreq=60 r1=0.7320 x1=0.1000 units=km normamps=122.00
New "Linecode.56-44B_4" nphases=4 basefreq=60 r1=0.7320 x1=0.1000 units=km normamps=122.00

New "Linecode.27-44B_1" nphases=1 basefreq=60 r1=0.5060 x1=0.1000 units=km normamps=157.00
New "Linecode.27-44B_2" nphases=2 basefreq=60 r1=0.5060 x1=0.1000 units=km normamps=157.00
New "Linecode.27-44B_3" nphases=3 basefreq=60 r1=0.5060 x1=0.1000 units=km normamps=157.00
New "Linecode.27-44B_4" nphases=4 basefreq=60 r1=0.5060 x1=0.1000 units=km normamps=157.00

New "Linecode.46-40B_1" nphases=1 basefreq=60 r1=0.5060 x1=0.1000 units=km normamps=157.00
New "Linecode.46-40B_2" nphases=2 basefreq=60 r1=0.5060 x1=0.1000 units=km normamps=157.00
New "Linecode.46-40B_3" nphases=3 basefreq=60 r1=0.5060 x1=0.1000 units=km normamps=157.00
New "Linecode.46-40B_4" nphases=4 basefreq=60 r1=0.5060 x1=0.1000 units=km normamps=157.00

New "Linecode.46-44B_1" nphases=1 basefreq=60 r1=0.5060 x1=0.1000 units=km normamps=157.00
New "Linecode.46-44B_2" nphases=2 basefreq=60 r1=0.5060 x1=0.1000 units=km normamps=157.00
New "Linecode.46-44B_3" nphases=3 basefreq=60 r1=0.5060 x1=0.1000 units=km normamps=157.00
New "Linecode.46-44B_4" nphases=4 basefreq=60 r1=0.5060 x1=0.1000 units=km normamps=157.00

New "Linecode.28-44B_1" nphases=1 basefreq=60 r1=0.3650 x1=0.1000 units=km normamps=196.00
New "Linecode.28-44B_2" nphases=2 basefreq=60 r1=0.3650 x1=0.1000 units=km normamps=196.00
New "Linecode.28-44B_3" nphases=3 basefreq=60 r1=0.3650 x1=0.1000 units=km normamps=196.00
New "Linecode.28-44B_4" nphases=4 basefreq=60 r1=0.3650 x1=0.1000 units=km normamps=196.00

New "Linecode.26-40B_1" nphases=1 basefreq=60 r1=0.9910 x1=0.1000 units=km normamps=100.00
New "Linecode.26-40B_2" nphases=2 basefreq=60 r1=0.9910 x1=0.1000 units=km normamps=100.00
New "Linecode.26-40B_3" nphases=3 basefreq=60 r1=0.9910 x1=0.1000 units=km normamps=100.00
New "Linecode.26-40B_4" nphases=4 basefreq=60 r1=0.9910 x1=0.1000 units=km normamps=100.00

New "Linecode.26-44B_1" nphases=1 basefreq=60 r1=0.9910 x1=0.1000 units=km normamps=100.00
New "Linecode.26-44B_2" nphases=2 basefreq=60 r1=0.9910 x1=0.1000 units=km normamps=100.00
New "Linecode.26-44B_3" nphases=3 basefreq=60 r1=0.9910 x1=0.1000 units=km normamps=100.00
New "Linecode.26-44B_4" nphases=4 basefreq=60 r1=0.9910 x1=0.1000 units=km normamps=100.00

New "Linecode.45-44X_1" nphases=1 basefreq=60 r1=0.9910 x1=0.1000 units=km normamps=100.00
New "Linecode.45-44X_2" nphases=2 basefreq=60 r1=0.9910 x1=0.1000 units=km normamps=100.00
New "Linecode.45-44X_3" nphases=3 basefreq=60 r1=0.9910 x1=0.1000 units=km normamps=100.00
New "Linecode.45-44X_4" nphases=4 basefreq=60 r1=0.9910 x1=0.1000 units=km normamps=100.00

New "Linecode.CI-06_1" nphases=1 basefreq=60 r1=3.5040 x1=0.1300 units=km normamps=51.00
New "Linecode.CI-06_2" nphases=2 basefreq=60 r1=3.5040 x1=0.1300 units=km normamps=51.00
New "Linecode.CI-06_3" nphases=3 basefreq=60 r1=3.5040 x1=0.1300 units=km normamps=51.00
New "Linecode.CI-06_4" nphases=4 basefreq=60 r1=3.5040 x1=0.1300 units=km normamps=51.00

New "Linecode.100-71B_1" nphases=1 basefreq=60 r1=0.9750 x1=0.4700 units=km normamps=152.00
New "Linecode.100-71B_2" nphases=2 basefreq=60 r1=0.9750 x1=0.4700 units=km normamps=152.00
New "Linecode.100-71B_3" nphases=3 basefreq=60 r1=0.9750 x1=0.4700 units=km normamps=152.00
New "Linecode.100-71B_4" nphases=4 basefreq=60 r1=0.9750 x1=0.4700 units=km normamps=152.00

New "Linecode.100-71N_1" nphases=1 basefreq=60 r1=0.9750 x1=0.4700 units=km normamps=152.00
New "Linecode.100-71N_2" nphases=2 basefreq=60 r1=0.9750 x1=0.4700 units=km normamps=152.00
New "Linecode.100-71N_3" nphases=3 basefreq=60 r1=0.9750 x1=0.4700 units=km normamps=152.00
New "Linecode.100-71N_4" nphases=4 basefreq=60 r1=0.9750 x1=0.4700 units=km normamps=152.00

New "Linecode.101-71B_1" nphases=1 basefreq=60 r1=1.5510 x1=0.4900 units=km normamps=114.00
New "Linecode.101-71B_2" nphases=2 basefreq=60 r1=1.5510 x1=0.4900 units=km normamps=114.00
New "Linecode.101-71B_3" nphases=3 basefreq=60 r1=1.5510 x1=0.4900 units=km normamps=114.00
New "Linecode.101-71B_4" nphases=4 basefreq=60 r1=1.5510 x1=0.4900 units=km normamps=114.00

New "Linecode.102-71B_1" nphases=1 basefreq=60 r1=0.9750 x1=0.4700 units=km normamps=152.00
New "Linecode.102-71B_2" nphases=2 basefreq=60 r1=0.9750 x1=0.4700 units=km normamps=152.00
New "Linecode.102-71B_3" nphases=3 basefreq=60 r1=0.9750 x1=0.4700 units=km normamps=152.00
New "Linecode.102-71B_4" nphases=4 basefreq=60 r1=0.9750 x1=0.4700 units=km normamps=152.00

New "Linecode.10-31A_1" nphases=1 basefreq=60 r1=0.1190 x1=0.5180 units=km normamps=880.00
New "Linecode.10-31A_2" nphases=2 basefreq=60 r1=0.1190 x1=0.5180 units=km normamps=880.00
New "Linecode.10-31A_3" nphases=3 basefreq=60 r1=0.1190 x1=0.5180 units=km normamps=880.00
New "Linecode.10-31A_4" nphases=4 basefreq=60 r1=0.1190 x1=0.5180 units=km normamps=880.00

New "Linecode.103-71N_1" nphases=1 basefreq=60 r1=18.3250 x1=0.4940 units=km normamps=35.00
New "Linecode.103-71N_2" nphases=2 basefreq=60 r1=18.3250 x1=0.4940 units=km normamps=35.00
New "Linecode.103-71N_3" nphases=3 basefreq=60 r1=18.3250 x1=0.4940 units=km normamps=35.00
New "Linecode.103-71N_4" nphases=4 basefreq=60 r1=18.3250 x1=0.4940 units=km normamps=35.00

New "Linecode.104-71N_1" nphases=1 basefreq=60 r1=29.1420 x1=0.5130 units=km normamps=25.00
New "Linecode.104-71N_2" nphases=2 basefreq=60 r1=29.1420 x1=0.5130 units=km normamps=25.00
New "Linecode.104-71N_3" nphases=3 basefreq=60 r1=29.1420 x1=0.5130 units=km normamps=25.00
New "Linecode.104-71N_4" nphases=4 basefreq=60 r1=29.1420 x1=0.5130 units=km normamps=25.00

New "Linecode.105-71N_1" nphases=1 basefreq=60 r1=11.4110 x1=0.5200 units=km normamps=65.00
New "Linecode.105-71N_2" nphases=2 basefreq=60 r1=11.4110 x1=0.5200 units=km normamps=65.00
New "Linecode.105-71N_3" nphases=3 basefreq=60 r1=11.4110 x1=0.5200 units=km normamps=65.00
New "Linecode.105-71N_4" nphases=4 basefreq=60 r1=11.4110 x1=0.5200 units=km normamps=65.00

New "Linecode.10-61A_1" nphases=1 basefreq=60 r1=0.1190 x1=0.5180 units=km normamps=880.00
New "Linecode.10-61A_2" nphases=2 basefreq=60 r1=0.1190 x1=0.5180 units=km normamps=880.00
New "Linecode.10-61A_3" nphases=3 basefreq=60 r1=0.1190 x1=0.5180 units=km normamps=880.00
New "Linecode.10-61A_4" nphases=4 basefreq=60 r1=0.1190 x1=0.5180 units=km normamps=880.00

New "Linecode.106-71B_1" nphases=1 basefreq=60 r1=2.4690 x1=0.6000 units=km normamps=105.00
New "Linecode.106-71B_2" nphases=2 basefreq=60 r1=2.4690 x1=0.6000 units=km normamps=105.00
New "Linecode.106-71B_3" nphases=3 basefreq=60 r1=2.4690 x1=0.6000 units=km normamps=105.00
New "Linecode.106-71B_4" nphases=4 basefreq=60 r1=2.4690 x1=0.6000 units=km normamps=105.00

New "Linecode.106-71N_1" nphases=1 basefreq=60 r1=2.4690 x1=0.6000 units=km normamps=105.00
New "Linecode.106-71N_2" nphases=2 basefreq=60 r1=2.4690 x1=0.6000 units=km normamps=105.00
New "Linecode.106-71N_3" nphases=3 basefreq=60 r1=2.4690 x1=0.6000 units=km normamps=105.00
New "Linecode.106-71N_4" nphases=4 basefreq=60 r1=2.4690 x1=0.6000 units=km normamps=105.00

New "Linecode.10-71A_1" nphases=1 basefreq=60 r1=0.1190 x1=0.5180 units=km normamps=880.00
New "Linecode.10-71A_2" nphases=2 basefreq=60 r1=0.1190 x1=0.5180 units=km normamps=880.00
New "Linecode.10-71A_3" nphases=3 basefreq=60 r1=0.1190 x1=0.5180 units=km normamps=880.00
New "Linecode.10-71A_4" nphases=4 basefreq=60 r1=0.1190 x1=0.5180 units=km normamps=880.00

New "Linecode.10-71B_1" nphases=1 basefreq=60 r1=1.5510 x1=0.4900 units=km normamps=114.00
New "Linecode.10-71B_2" nphases=2 basefreq=60 r1=1.5510 x1=0.4900 units=km normamps=114.00
New "Linecode.10-71B_3" nphases=3 basefreq=60 r1=1.5510 x1=0.4900 units=km normamps=114.00
New "Linecode.10-71B_4" nphases=4 basefreq=60 r1=1.5510 x1=0.4900 units=km normamps=114.00

New "Linecode.10-71N_1" nphases=1 basefreq=60 r1=1.5510 x1=0.4900 units=km normamps=114.00
New "Linecode.10-71N_2" nphases=2 basefreq=60 r1=1.5510 x1=0.4900 units=km normamps=114.00
New "Linecode.10-71N_3" nphases=3 basefreq=60 r1=1.5510 x1=0.4900 units=km normamps=114.00
New "Linecode.10-71N_4" nphases=4 basefreq=60 r1=1.5510 x1=0.4900 units=km normamps=114.00

New "Linecode.107-27_1" nphases=1 basefreq=60 r1=3.5140 x1=0.1300 units=km normamps=47.00
New "Linecode.107-27_2" nphases=2 basefreq=60 r1=3.5140 x1=0.1300 units=km normamps=47.00
New "Linecode.107-27_3" nphases=3 basefreq=60 r1=3.5140 x1=0.1300 units=km normamps=47.00
New "Linecode.107-27_4" nphases=4 basefreq=60 r1=3.5140 x1=0.1300 units=km normamps=47.00

New "Linecode.107-42_1" nphases=1 basefreq=60 r1=3.5140 x1=0.1300 units=km normamps=47.00
New "Linecode.107-42_2" nphases=2 basefreq=60 r1=3.5140 x1=0.1300 units=km normamps=47.00
New "Linecode.107-42_3" nphases=3 basefreq=60 r1=3.5140 x1=0.1300 units=km normamps=47.00
New "Linecode.107-42_4" nphases=4 basefreq=60 r1=3.5140 x1=0.1300 units=km normamps=47.00

New "Linecode.107-42X_1" nphases=1 basefreq=60 r1=3.5140 x1=0.1300 units=km normamps=47.00
New "Linecode.107-42X_2" nphases=2 basefreq=60 r1=3.5140 x1=0.1300 units=km normamps=47.00
New "Linecode.107-42X_3" nphases=3 basefreq=60 r1=3.5140 x1=0.1300 units=km normamps=47.00
New "Linecode.107-42X_4" nphases=4 basefreq=60 r1=3.5140 x1=0.1300 units=km normamps=47.00

New "Linecode.107-42Y_1" nphases=1 basefreq=60 r1=3.5140 x1=0.1300 units=km normamps=47.00
New "Linecode.107-42Y_2" nphases=2 basefreq=60 r1=3.5140 x1=0.1300 units=km normamps=47.00
New "Linecode.107-42Y_3" nphases=3 basefreq=60 r1=3.5140 x1=0.1300 units=km normamps=47.00
New "Linecode.107-42Y_4" nphases=4 basefreq=60 r1=3.5140 x1=0.1300 units=km normamps=47.00

New "Linecode.107-43_1" nphases=1 basefreq=60 r1=3.5140 x1=0.1300 units=km normamps=47.00
New "Linecode.107-43_2" nphases=2 basefreq=60 r1=3.5140 x1=0.1300 units=km normamps=47.00
New "Linecode.107-43_3" nphases=3 basefreq=60 r1=3.5140 x1=0.1300 units=km normamps=47.00
New "Linecode.107-43_4" nphases=4 basefreq=60 r1=3.5140 x1=0.1300 units=km normamps=47.00

New "Linecode.107-44_1" nphases=1 basefreq=60 r1=3.5140 x1=0.1300 units=km normamps=47.00
New "Linecode.107-44_2" nphases=2 basefreq=60 r1=3.5140 x1=0.1300 units=km normamps=47.00
New "Linecode.107-44_3" nphases=3 basefreq=60 r1=3.5140 x1=0.1300 units=km normamps=47.00
New "Linecode.107-44_4" nphases=4 basefreq=60 r1=3.5140 x1=0.1300 units=km normamps=47.00

New "Linecode.107-51B_1" nphases=1 basefreq=60 r1=3.5140 x1=0.1300 units=km normamps=47.00
New "Linecode.107-51B_2" nphases=2 basefreq=60 r1=3.5140 x1=0.1300 units=km normamps=47.00
New "Linecode.107-51B_3" nphases=3 basefreq=60 r1=3.5140 x1=0.1300 units=km normamps=47.00
New "Linecode.107-51B_4" nphases=4 basefreq=60 r1=3.5140 x1=0.1300 units=km normamps=47.00

New "Linecode.108-26_1" nphases=1 basefreq=60 r1=2.1790 x1=0.1200 units=km normamps=61.00
New "Linecode.108-26_2" nphases=2 basefreq=60 r1=2.1790 x1=0.1200 units=km normamps=61.00
New "Linecode.108-26_3" nphases=3 basefreq=60 r1=2.1790 x1=0.1200 units=km normamps=61.00
New "Linecode.108-26_4" nphases=4 basefreq=60 r1=2.1790 x1=0.1200 units=km normamps=61.00

New "Linecode.108-43_1" nphases=1 basefreq=60 r1=2.1790 x1=0.1200 units=km normamps=61.00
New "Linecode.108-43_2" nphases=2 basefreq=60 r1=2.1790 x1=0.1200 units=km normamps=61.00
New "Linecode.108-43_3" nphases=3 basefreq=60 r1=2.1790 x1=0.1200 units=km normamps=61.00
New "Linecode.108-43_4" nphases=4 basefreq=60 r1=2.1790 x1=0.1200 units=km normamps=61.00

New "Linecode.108-43X_1" nphases=1 basefreq=60 r1=2.1790 x1=0.1200 units=km normamps=61.00
New "Linecode.108-43X_2" nphases=2 basefreq=60 r1=2.1790 x1=0.1200 units=km normamps=61.00
New "Linecode.108-43X_3" nphases=3 basefreq=60 r1=2.1790 x1=0.1200 units=km normamps=61.00
New "Linecode.108-43X_4" nphases=4 basefreq=60 r1=2.1790 x1=0.1200 units=km normamps=61.00

New "Linecode.108-44_1" nphases=1 basefreq=60 r1=2.1790 x1=0.1200 units=km normamps=61.00
New "Linecode.108-44_2" nphases=2 basefreq=60 r1=2.1790 x1=0.1200 units=km normamps=61.00
New "Linecode.108-44_3" nphases=3 basefreq=60 r1=2.1790 x1=0.1200 units=km normamps=61.00
New "Linecode.108-44_4" nphases=4 basefreq=60 r1=2.1790 x1=0.1200 units=km normamps=61.00

New "Linecode.108-51B_1" nphases=1 basefreq=60 r1=2.1790 x1=0.1200 units=km normamps=61.00
New "Linecode.108-51B_2" nphases=2 basefreq=60 r1=2.1790 x1=0.1200 units=km normamps=61.00
New "Linecode.108-51B_3" nphases=3 basefreq=60 r1=2.1790 x1=0.1200 units=km normamps=61.00
New "Linecode.108-51B_4" nphases=4 basefreq=60 r1=2.1790 x1=0.1200 units=km normamps=61.00

New "Linecode.109-43_1" nphases=1 basefreq=60 r1=1.3690 x1=0.1200 units=km normamps=78.00
New "Linecode.109-43_2" nphases=2 basefreq=60 r1=1.3690 x1=0.1200 units=km normamps=78.00
New "Linecode.109-43_3" nphases=3 basefreq=60 r1=1.3690 x1=0.1200 units=km normamps=78.00
New "Linecode.109-43_4" nphases=4 basefreq=60 r1=1.3690 x1=0.1200 units=km normamps=78.00

New "Linecode.109-44_1" nphases=1 basefreq=60 r1=1.3690 x1=0.1200 units=km normamps=78.00
New "Linecode.109-44_2" nphases=2 basefreq=60 r1=1.3690 x1=0.1200 units=km normamps=78.00
New "Linecode.109-44_3" nphases=3 basefreq=60 r1=1.3690 x1=0.1200 units=km normamps=78.00
New "Linecode.109-44_4" nphases=4 basefreq=60 r1=1.3690 x1=0.1200 units=km normamps=78.00

New "Linecode.109-51B_1" nphases=1 basefreq=60 r1=1.3690 x1=0.1200 units=km normamps=78.00
New "Linecode.109-51B_2" nphases=2 basefreq=60 r1=1.3690 x1=0.1200 units=km normamps=78.00
New "Linecode.109-51B_3" nphases=3 basefreq=60 r1=1.3690 x1=0.1200 units=km normamps=78.00
New "Linecode.109-51B_4" nphases=4 basefreq=60 r1=1.3690 x1=0.1200 units=km normamps=78.00

New "Linecode.110-44_1" nphases=1 basefreq=60 r1=0.9910 x1=0.1100 units=km normamps=94.00
New "Linecode.110-44_2" nphases=2 basefreq=60 r1=0.9910 x1=0.1100 units=km normamps=94.00
New "Linecode.110-44_3" nphases=3 basefreq=60 r1=0.9910 x1=0.1100 units=km normamps=94.00
New "Linecode.110-44_4" nphases=4 basefreq=60 r1=0.9910 x1=0.1100 units=km normamps=94.00

New "Linecode.110-51B_1" nphases=1 basefreq=60 r1=0.9910 x1=0.1100 units=km normamps=94.00
New "Linecode.110-51B_2" nphases=2 basefreq=60 r1=0.9910 x1=0.1100 units=km normamps=94.00
New "Linecode.110-51B_3" nphases=3 basefreq=60 r1=0.9910 x1=0.1100 units=km normamps=94.00
New "Linecode.110-51B_4" nphases=4 basefreq=60 r1=0.9910 x1=0.1100 units=km normamps=94.00

New "Linecode.111-51B_1" nphases=1 basefreq=60 r1=0.7320 x1=0.1100 units=km normamps=112.00
New "Linecode.111-51B_2" nphases=2 basefreq=60 r1=0.7320 x1=0.1100 units=km normamps=112.00
New "Linecode.111-51B_3" nphases=3 basefreq=60 r1=0.7320 x1=0.1100 units=km normamps=112.00
New "Linecode.111-51B_4" nphases=4 basefreq=60 r1=0.7320 x1=0.1100 units=km normamps=112.00

New "Linecode.112-51B_1" nphases=1 basefreq=60 r1=0.5060 x1=0.1100 units=km normamps=138.00
New "Linecode.112-51B_2" nphases=2 basefreq=60 r1=0.5060 x1=0.1100 units=km normamps=138.00
New "Linecode.112-51B_3" nphases=3 basefreq=60 r1=0.5060 x1=0.1100 units=km normamps=138.00
New "Linecode.112-51B_4" nphases=4 basefreq=60 r1=0.5060 x1=0.1100 units=km normamps=138.00

New "Linecode.113-51B_1" nphases=1 basefreq=60 r1=0.3650 x1=0.1000 units=km normamps=164.00
New "Linecode.113-51B_2" nphases=2 basefreq=60 r1=0.3650 x1=0.1000 units=km normamps=164.00
New "Linecode.113-51B_3" nphases=3 basefreq=60 r1=0.3650 x1=0.1000 units=km normamps=164.00
New "Linecode.113-51B_4" nphases=4 basefreq=60 r1=0.3650 x1=0.1000 units=km normamps=164.00

New "Linecode.114-51B_1" nphases=1 basefreq=60 r1=0.2890 x1=0.1000 units=km normamps=186.00
New "Linecode.114-51B_2" nphases=2 basefreq=60 r1=0.2890 x1=0.1000 units=km normamps=186.00
New "Linecode.114-51B_3" nphases=3 basefreq=60 r1=0.2890 x1=0.1000 units=km normamps=186.00
New "Linecode.114-51B_4" nphases=4 basefreq=60 r1=0.2890 x1=0.1000 units=km normamps=186.00

New "Linecode.115-51B_1" nphases=1 basefreq=60 r1=0.2360 x1=0.1000 units=km normamps=210.00
New "Linecode.115-51B_2" nphases=2 basefreq=60 r1=0.2360 x1=0.1000 units=km normamps=210.00
New "Linecode.115-51B_3" nphases=3 basefreq=60 r1=0.2360 x1=0.1000 units=km normamps=210.00
New "Linecode.115-51B_4" nphases=4 basefreq=60 r1=0.2360 x1=0.1000 units=km normamps=210.00

New "Linecode.11-61A_1" nphases=1 basefreq=60 r1=0.1950 x1=0.4020 units=km normamps=502.80
New "Linecode.11-61A_2" nphases=2 basefreq=60 r1=0.1950 x1=0.4020 units=km normamps=502.80
New "Linecode.11-61A_3" nphases=3 basefreq=60 r1=0.1950 x1=0.4020 units=km normamps=502.80
New "Linecode.11-61A_4" nphases=4 basefreq=60 r1=0.1950 x1=0.4020 units=km normamps=502.80

New "Linecode.116-51B_1" nphases=1 basefreq=60 r1=0.1880 x1=0.1000 units=km normamps=236.00
New "Linecode.116-51B_2" nphases=2 basefreq=60 r1=0.1880 x1=0.1000 units=km normamps=236.00
New "Linecode.116-51B_3" nphases=3 basefreq=60 r1=0.1880 x1=0.1000 units=km normamps=236.00
New "Linecode.116-51B_4" nphases=4 basefreq=60 r1=0.1880 x1=0.1000 units=km normamps=236.00

New "Linecode.11-71A_1" nphases=1 basefreq=60 r1=0.1950 x1=0.4020 units=km normamps=502.80
New "Linecode.11-71A_2" nphases=2 basefreq=60 r1=0.1950 x1=0.4020 units=km normamps=502.80
New "Linecode.11-71A_3" nphases=3 basefreq=60 r1=0.1950 x1=0.4020 units=km normamps=502.80
New "Linecode.11-71A_4" nphases=4 basefreq=60 r1=0.1950 x1=0.4020 units=km normamps=502.80

New "Linecode.11-71B_1" nphases=1 basefreq=60 r1=1.5510 x1=0.4900 units=km normamps=114.00
New "Linecode.11-71B_2" nphases=2 basefreq=60 r1=1.5510 x1=0.4900 units=km normamps=114.00
New "Linecode.11-71B_3" nphases=3 basefreq=60 r1=1.5510 x1=0.4900 units=km normamps=114.00
New "Linecode.11-71B_4" nphases=4 basefreq=60 r1=1.5510 x1=0.4900 units=km normamps=114.00

New "Linecode.11-71N_1" nphases=1 basefreq=60 r1=1.5510 x1=0.4900 units=km normamps=114.00
New "Linecode.11-71N_2" nphases=2 basefreq=60 r1=1.5510 x1=0.4900 units=km normamps=114.00
New "Linecode.11-71N_3" nphases=3 basefreq=60 r1=1.5510 x1=0.4900 units=km normamps=114.00
New "Linecode.11-71N_4" nphases=4 basefreq=60 r1=1.5510 x1=0.4900 units=km normamps=114.00

New "Linecode.117-51B_1" nphases=1 basefreq=60 r1=0.1430 x1=0.1000 units=km normamps=272.00
New "Linecode.117-51B_2" nphases=2 basefreq=60 r1=0.1430 x1=0.1000 units=km normamps=272.00
New "Linecode.117-51B_3" nphases=3 basefreq=60 r1=0.1430 x1=0.1000 units=km normamps=272.00
New "Linecode.117-51B_4" nphases=4 basefreq=60 r1=0.1430 x1=0.1000 units=km normamps=272.00

New "Linecode.118-51M_1" nphases=1 basefreq=60 r1=0.9910 x1=0.1700 units=km normamps=83.00
New "Linecode.118-51M_2" nphases=2 basefreq=60 r1=0.9910 x1=0.1700 units=km normamps=83.00
New "Linecode.118-51M_3" nphases=3 basefreq=60 r1=0.9910 x1=0.1700 units=km normamps=83.00
New "Linecode.118-51M_4" nphases=4 basefreq=60 r1=0.9910 x1=0.1700 units=km normamps=83.00

New "Linecode.119-51M_1" nphases=1 basefreq=60 r1=0.7320 x1=0.1600 units=km normamps=98.00
New "Linecode.119-51M_2" nphases=2 basefreq=60 r1=0.7320 x1=0.1600 units=km normamps=98.00
New "Linecode.119-51M_3" nphases=3 basefreq=60 r1=0.7320 x1=0.1600 units=km normamps=98.00
New "Linecode.119-51M_4" nphases=4 basefreq=60 r1=0.7320 x1=0.1600 units=km normamps=98.00

New "Linecode.120-31M_1" nphases=1 basefreq=60 r1=0.5060 x1=0.1500 units=km normamps=120.00
New "Linecode.120-31M_2" nphases=2 basefreq=60 r1=0.5060 x1=0.1500 units=km normamps=120.00
New "Linecode.120-31M_3" nphases=3 basefreq=60 r1=0.5060 x1=0.1500 units=km normamps=120.00
New "Linecode.120-31M_4" nphases=4 basefreq=60 r1=0.5060 x1=0.1500 units=km normamps=120.00

New "Linecode.121-31M_1" nphases=1 basefreq=60 r1=0.3650 x1=0.1500 units=km normamps=143.00
New "Linecode.121-31M_2" nphases=2 basefreq=60 r1=0.3650 x1=0.1500 units=km normamps=143.00
New "Linecode.121-31M_3" nphases=3 basefreq=60 r1=0.3650 x1=0.1500 units=km normamps=143.00
New "Linecode.121-31M_4" nphases=4 basefreq=60 r1=0.3650 x1=0.1500 units=km normamps=143.00

New "Linecode.12-31A_1" nphases=1 basefreq=60 r1=0.1650 x1=0.4710 units=km normamps=502.00
New "Linecode.12-31A_2" nphases=2 basefreq=60 r1=0.1650 x1=0.4710 units=km normamps=502.00
New "Linecode.12-31A_3" nphases=3 basefreq=60 r1=0.1650 x1=0.4710 units=km normamps=502.00
New "Linecode.12-31A_4" nphases=4 basefreq=60 r1=0.1650 x1=0.4710 units=km normamps=502.00

New "Linecode.123-31M_1" nphases=1 basefreq=60 r1=0.2360 x1=0.1400 units=km normamps=182.00
New "Linecode.123-31M_2" nphases=2 basefreq=60 r1=0.2360 x1=0.1400 units=km normamps=182.00
New "Linecode.123-31M_3" nphases=3 basefreq=60 r1=0.2360 x1=0.1400 units=km normamps=182.00
New "Linecode.123-31M_4" nphases=4 basefreq=60 r1=0.2360 x1=0.1400 units=km normamps=182.00

New "Linecode.124-31M_1" nphases=1 basefreq=60 r1=0.1880 x1=0.1300 units=km normamps=205.00
New "Linecode.124-31M_2" nphases=2 basefreq=60 r1=0.1880 x1=0.1300 units=km normamps=205.00
New "Linecode.124-31M_3" nphases=3 basefreq=60 r1=0.1880 x1=0.1300 units=km normamps=205.00
New "Linecode.124-31M_4" nphases=4 basefreq=60 r1=0.1880 x1=0.1300 units=km normamps=205.00

New "Linecode.12-61A_1" nphases=1 basefreq=60 r1=0.1650 x1=0.4710 units=km normamps=502.00
New "Linecode.12-61A_2" nphases=2 basefreq=60 r1=0.1650 x1=0.4710 units=km normamps=502.00
New "Linecode.12-61A_3" nphases=3 basefreq=60 r1=0.1650 x1=0.4710 units=km normamps=502.00
New "Linecode.12-61A_4" nphases=4 basefreq=60 r1=0.1650 x1=0.4710 units=km normamps=502.00

New "Linecode.126-51M_1" nphases=1 basefreq=60 r1=0.1150 x1=0.1200 units=km normamps=305.00
New "Linecode.126-51M_2" nphases=2 basefreq=60 r1=0.1150 x1=0.1200 units=km normamps=305.00
New "Linecode.126-51M_3" nphases=3 basefreq=60 r1=0.1150 x1=0.1200 units=km normamps=305.00
New "Linecode.126-51M_4" nphases=4 basefreq=60 r1=0.1150 x1=0.1200 units=km normamps=305.00

New "Linecode.12-71A_1" nphases=1 basefreq=60 r1=0.1650 x1=0.4710 units=km normamps=502.00
New "Linecode.12-71A_2" nphases=2 basefreq=60 r1=0.1650 x1=0.4710 units=km normamps=502.00
New "Linecode.12-71A_3" nphases=3 basefreq=60 r1=0.1650 x1=0.4710 units=km normamps=502.00
New "Linecode.12-71A_4" nphases=4 basefreq=60 r1=0.1650 x1=0.4710 units=km normamps=502.00

New "Linecode.12-71B_1" nphases=1 basefreq=60 r1=0.6130 x1=0.4500 units=km normamps=203.00
New "Linecode.12-71B_2" nphases=2 basefreq=60 r1=0.6130 x1=0.4500 units=km normamps=203.00
New "Linecode.12-71B_3" nphases=3 basefreq=60 r1=0.6130 x1=0.4500 units=km normamps=203.00
New "Linecode.12-71B_4" nphases=4 basefreq=60 r1=0.6130 x1=0.4500 units=km normamps=203.00

New "Linecode.127-51B_1" nphases=1 basefreq=60 r1=2.0820 x1=0.1200 units=km normamps=61.00
New "Linecode.127-51B_2" nphases=2 basefreq=60 r1=2.0820 x1=0.1200 units=km normamps=61.00
New "Linecode.127-51B_3" nphases=3 basefreq=60 r1=2.0820 x1=0.1200 units=km normamps=61.00
New "Linecode.127-51B_4" nphases=4 basefreq=60 r1=2.0820 x1=0.1200 units=km normamps=61.00

New "Linecode.127-71_1" nphases=1 basefreq=60 r1=2.0820 x1=0.1200 units=km normamps=61.00
New "Linecode.127-71_2" nphases=2 basefreq=60 r1=2.0820 x1=0.1200 units=km normamps=61.00
New "Linecode.127-71_3" nphases=3 basefreq=60 r1=2.0820 x1=0.1200 units=km normamps=61.00
New "Linecode.127-71_4" nphases=4 basefreq=60 r1=2.0820 x1=0.1200 units=km normamps=61.00

New "Linecode.127-71X_1" nphases=1 basefreq=60 r1=2.2420 x1=0.1200 units=km normamps=61.00
New "Linecode.127-71X_2" nphases=2 basefreq=60 r1=2.2420 x1=0.1200 units=km normamps=61.00
New "Linecode.127-71X_3" nphases=3 basefreq=60 r1=2.2420 x1=0.1200 units=km normamps=61.00
New "Linecode.127-71X_4" nphases=4 basefreq=60 r1=2.2420 x1=0.1200 units=km normamps=61.00

New "Linecode.127-71Y_1" nphases=1 basefreq=60 r1=2.0820 x1=0.1200 units=km normamps=61.00
New "Linecode.127-71Y_2" nphases=2 basefreq=60 r1=2.0820 x1=0.1200 units=km normamps=61.00
New "Linecode.127-71Y_3" nphases=3 basefreq=60 r1=2.0820 x1=0.1200 units=km normamps=61.00
New "Linecode.127-71Y_4" nphases=4 basefreq=60 r1=2.0820 x1=0.1200 units=km normamps=61.00

New "Linecode.128-42X_1" nphases=1 basefreq=60 r1=1.4010 x1=0.1200 units=km normamps=79.00
New "Linecode.128-42X_2" nphases=2 basefreq=60 r1=1.4010 x1=0.1200 units=km normamps=79.00
New "Linecode.128-42X_3" nphases=3 basefreq=60 r1=1.4010 x1=0.1200 units=km normamps=79.00
New "Linecode.128-42X_4" nphases=4 basefreq=60 r1=1.4010 x1=0.1200 units=km normamps=79.00

New "Linecode.128-51_1" nphases=1 basefreq=60 r1=1.3080 x1=0.1200 units=km normamps=79.00
New "Linecode.128-51_2" nphases=2 basefreq=60 r1=1.3080 x1=0.1200 units=km normamps=79.00
New "Linecode.128-51_3" nphases=3 basefreq=60 r1=1.3080 x1=0.1200 units=km normamps=79.00
New "Linecode.128-51_4" nphases=4 basefreq=60 r1=1.3080 x1=0.1200 units=km normamps=79.00

New "Linecode.128-51B_1" nphases=1 basefreq=60 r1=1.3080 x1=0.1200 units=km normamps=79.00
New "Linecode.128-51B_2" nphases=2 basefreq=60 r1=1.3080 x1=0.1200 units=km normamps=79.00
New "Linecode.128-51B_3" nphases=3 basefreq=60 r1=1.3080 x1=0.1200 units=km normamps=79.00
New "Linecode.128-51B_4" nphases=4 basefreq=60 r1=1.3080 x1=0.1200 units=km normamps=79.00

New "Linecode.128-71_1" nphases=1 basefreq=60 r1=1.3080 x1=0.1200 units=km normamps=79.00
New "Linecode.128-71_2" nphases=2 basefreq=60 r1=1.3080 x1=0.1200 units=km normamps=79.00
New "Linecode.128-71_3" nphases=3 basefreq=60 r1=1.3080 x1=0.1200 units=km normamps=79.00
New "Linecode.128-71_4" nphases=4 basefreq=60 r1=1.3080 x1=0.1200 units=km normamps=79.00

New "Linecode.128-71X_1" nphases=1 basefreq=60 r1=1.3080 x1=0.1200 units=km normamps=79.00
New "Linecode.128-71X_2" nphases=2 basefreq=60 r1=1.3080 x1=0.1200 units=km normamps=79.00
New "Linecode.128-71X_3" nphases=3 basefreq=60 r1=1.3080 x1=0.1200 units=km normamps=79.00
New "Linecode.128-71X_4" nphases=4 basefreq=60 r1=1.3080 x1=0.1200 units=km normamps=79.00

New "Linecode.129-51B_1" nphases=1 basefreq=60 r1=0.8270 x1=0.1200 units=km normamps=101.00
New "Linecode.129-51B_2" nphases=2 basefreq=60 r1=0.8270 x1=0.1200 units=km normamps=101.00
New "Linecode.129-51B_3" nphases=3 basefreq=60 r1=0.8270 x1=0.1200 units=km normamps=101.00
New "Linecode.129-51B_4" nphases=4 basefreq=60 r1=0.8270 x1=0.1200 units=km normamps=101.00

New "Linecode.129-71_1" nphases=1 basefreq=60 r1=0.8270 x1=0.1200 units=km normamps=101.00
New "Linecode.129-71_2" nphases=2 basefreq=60 r1=0.8270 x1=0.1200 units=km normamps=101.00
New "Linecode.129-71_3" nphases=3 basefreq=60 r1=0.8270 x1=0.1200 units=km normamps=101.00
New "Linecode.129-71_4" nphases=4 basefreq=60 r1=0.8270 x1=0.1200 units=km normamps=101.00

New "Linecode.129-71X_1" nphases=1 basefreq=60 r1=0.8970 x1=0.1200 units=km normamps=101.00
New "Linecode.129-71X_2" nphases=2 basefreq=60 r1=0.8970 x1=0.1200 units=km normamps=101.00
New "Linecode.129-71X_3" nphases=3 basefreq=60 r1=0.8970 x1=0.1200 units=km normamps=101.00
New "Linecode.129-71X_4" nphases=4 basefreq=60 r1=0.8970 x1=0.1200 units=km normamps=101.00

New "Linecode.129-71Y_1" nphases=1 basefreq=60 r1=0.8970 x1=0.1200 units=km normamps=101.00
New "Linecode.129-71Y_2" nphases=2 basefreq=60 r1=0.8970 x1=0.1200 units=km normamps=101.00
New "Linecode.129-71Y_3" nphases=3 basefreq=60 r1=0.8970 x1=0.1200 units=km normamps=101.00
New "Linecode.129-71Y_4" nphases=4 basefreq=60 r1=0.8970 x1=0.1200 units=km normamps=101.00

New "Linecode.130-51_1" nphases=1 basefreq=60 r1=0.5960 x1=0.1100 units=km normamps=122.00
New "Linecode.130-51_2" nphases=2 basefreq=60 r1=0.5960 x1=0.1100 units=km normamps=122.00
New "Linecode.130-51_3" nphases=3 basefreq=60 r1=0.5960 x1=0.1100 units=km normamps=122.00
New "Linecode.130-51_4" nphases=4 basefreq=60 r1=0.5960 x1=0.1100 units=km normamps=122.00

New "Linecode.130-51B_1" nphases=1 basefreq=60 r1=0.5960 x1=0.1100 units=km normamps=122.00
New "Linecode.130-51B_2" nphases=2 basefreq=60 r1=0.5960 x1=0.1100 units=km normamps=122.00
New "Linecode.130-51B_3" nphases=3 basefreq=60 r1=0.5960 x1=0.1100 units=km normamps=122.00
New "Linecode.130-51B_4" nphases=4 basefreq=60 r1=0.5960 x1=0.1100 units=km normamps=122.00

New "Linecode.130-51X_1" nphases=1 basefreq=60 r1=0.5960 x1=0.1100 units=km normamps=122.00
New "Linecode.130-51X_2" nphases=2 basefreq=60 r1=0.5960 x1=0.1100 units=km normamps=122.00
New "Linecode.130-51X_3" nphases=3 basefreq=60 r1=0.5960 x1=0.1100 units=km normamps=122.00
New "Linecode.130-51X_4" nphases=4 basefreq=60 r1=0.5960 x1=0.1100 units=km normamps=122.00

New "Linecode.1-31M_1" nphases=1 basefreq=60 r1=0.1950 x1=0.4000 units=km normamps=419.00
New "Linecode.1-31M_2" nphases=2 basefreq=60 r1=0.1950 x1=0.4000 units=km normamps=419.00
New "Linecode.1-31M_3" nphases=3 basefreq=60 r1=0.1950 x1=0.4000 units=km normamps=419.00
New "Linecode.1-31M_4" nphases=4 basefreq=60 r1=0.1950 x1=0.4000 units=km normamps=419.00

New "Linecode.132-51B_1" nphases=1 basefreq=60 r1=0.3050 x1=0.1000 units=km normamps=178.00
New "Linecode.132-51B_2" nphases=2 basefreq=60 r1=0.3050 x1=0.1000 units=km normamps=178.00
New "Linecode.132-51B_3" nphases=3 basefreq=60 r1=0.3050 x1=0.1000 units=km normamps=178.00
New "Linecode.132-51B_4" nphases=4 basefreq=60 r1=0.3050 x1=0.1000 units=km normamps=178.00

New "Linecode.134-51B_1" nphases=1 basefreq=60 r1=0.1750 x1=0.1000 units=km normamps=240.00
New "Linecode.134-51B_2" nphases=2 basefreq=60 r1=0.1750 x1=0.1000 units=km normamps=240.00
New "Linecode.134-51B_3" nphases=3 basefreq=60 r1=0.1750 x1=0.1000 units=km normamps=240.00
New "Linecode.134-51B_4" nphases=4 basefreq=60 r1=0.1750 x1=0.1000 units=km normamps=240.00

New "Linecode.13-61A_1" nphases=1 basefreq=60 r1=0.1190 x1=0.5280 units=km normamps=562.00
New "Linecode.13-61A_2" nphases=2 basefreq=60 r1=0.1190 x1=0.5280 units=km normamps=562.00
New "Linecode.13-61A_3" nphases=3 basefreq=60 r1=0.1190 x1=0.5280 units=km normamps=562.00
New "Linecode.13-61A_4" nphases=4 basefreq=60 r1=0.1190 x1=0.5280 units=km normamps=562.00

New "Linecode.136-51B_1" nphases=1 basefreq=60 r1=0.1140 x1=0.1000 units=km normamps=304.00
New "Linecode.136-51B_2" nphases=2 basefreq=60 r1=0.1140 x1=0.1000 units=km normamps=304.00
New "Linecode.136-51B_3" nphases=3 basefreq=60 r1=0.1140 x1=0.1000 units=km normamps=304.00
New "Linecode.136-51B_4" nphases=4 basefreq=60 r1=0.1140 x1=0.1000 units=km normamps=304.00

New "Linecode.13-71A_1" nphases=1 basefreq=60 r1=0.1190 x1=0.5280 units=km normamps=562.00
New "Linecode.13-71A_2" nphases=2 basefreq=60 r1=0.1190 x1=0.5280 units=km normamps=562.00
New "Linecode.13-71A_3" nphases=3 basefreq=60 r1=0.1190 x1=0.5280 units=km normamps=562.00
New "Linecode.13-71A_4" nphases=4 basefreq=60 r1=0.1190 x1=0.5280 units=km normamps=562.00

New "Linecode.13-71B_1" nphases=1 basefreq=60 r1=0.6130 x1=0.4500 units=km normamps=203.00
New "Linecode.13-71B_2" nphases=2 basefreq=60 r1=0.6130 x1=0.4500 units=km normamps=203.00
New "Linecode.13-71B_3" nphases=3 basefreq=60 r1=0.6130 x1=0.4500 units=km normamps=203.00
New "Linecode.13-71B_4" nphases=4 basefreq=60 r1=0.6130 x1=0.4500 units=km normamps=203.00

New "Linecode.13-71N_1" nphases=1 basefreq=60 r1=0.9750 x1=0.4500 units=km normamps=203.00
New "Linecode.13-71N_2" nphases=2 basefreq=60 r1=0.9750 x1=0.4500 units=km normamps=203.00
New "Linecode.13-71N_3" nphases=3 basefreq=60 r1=0.9750 x1=0.4500 units=km normamps=203.00
New "Linecode.13-71N_4" nphases=4 basefreq=60 r1=0.9750 x1=0.4500 units=km normamps=203.00

New "Linecode.137-51B_1" nphases=1 basefreq=60 r1=0.0870 x1=0.1000 units=km normamps=351.00
New "Linecode.137-51B_2" nphases=2 basefreq=60 r1=0.0870 x1=0.1000 units=km normamps=351.00
New "Linecode.137-51B_3" nphases=3 basefreq=60 r1=0.0870 x1=0.1000 units=km normamps=351.00
New "Linecode.137-51B_4" nphases=4 basefreq=60 r1=0.0870 x1=0.1000 units=km normamps=351.00

New "Linecode.138-51M_1" nphases=1 basefreq=60 r1=0.5960 x1=0.1600 units=km normamps=108.00
New "Linecode.138-51M_2" nphases=2 basefreq=60 r1=0.5960 x1=0.1600 units=km normamps=108.00
New "Linecode.138-51M_3" nphases=3 basefreq=60 r1=0.5960 x1=0.1600 units=km normamps=108.00
New "Linecode.138-51M_4" nphases=4 basefreq=60 r1=0.5960 x1=0.1600 units=km normamps=108.00

New "Linecode.139-51M_1" nphases=1 basefreq=60 r1=0.4410 x1=0.1600 units=km normamps=127.00
New "Linecode.139-51M_2" nphases=2 basefreq=60 r1=0.4410 x1=0.1600 units=km normamps=127.00
New "Linecode.139-51M_3" nphases=3 basefreq=60 r1=0.4410 x1=0.1600 units=km normamps=127.00
New "Linecode.139-51M_4" nphases=4 basefreq=60 r1=0.4410 x1=0.1600 units=km normamps=127.00

New "Linecode.140-31M_1" nphases=1 basefreq=60 r1=0.3050 x1=0.1500 units=km normamps=154.00
New "Linecode.140-31M_2" nphases=2 basefreq=60 r1=0.3050 x1=0.1500 units=km normamps=154.00
New "Linecode.140-31M_3" nphases=3 basefreq=60 r1=0.3050 x1=0.1500 units=km normamps=154.00
New "Linecode.140-31M_4" nphases=4 basefreq=60 r1=0.3050 x1=0.1500 units=km normamps=154.00

New "Linecode.141-31M_1" nphases=1 basefreq=60 r1=0.2200 x1=0.1400 units=km normamps=184.00
New "Linecode.141-31M_2" nphases=2 basefreq=60 r1=0.2200 x1=0.1400 units=km normamps=184.00
New "Linecode.141-31M_3" nphases=3 basefreq=60 r1=0.2200 x1=0.1400 units=km normamps=184.00
New "Linecode.141-31M_4" nphases=4 basefreq=60 r1=0.2200 x1=0.1400 units=km normamps=184.00

New "Linecode.142-51M_1" nphases=1 basefreq=60 r1=0.1750 x1=0.1300 units=km normamps=209.00
New "Linecode.142-51M_2" nphases=2 basefreq=60 r1=0.1750 x1=0.1300 units=km normamps=209.00
New "Linecode.142-51M_3" nphases=3 basefreq=60 r1=0.1750 x1=0.1300 units=km normamps=209.00
New "Linecode.142-51M_4" nphases=4 basefreq=60 r1=0.1750 x1=0.1300 units=km normamps=209.00

New "Linecode.14-31A_1" nphases=1 basefreq=60 r1=0.4860 x1=0.5640 units=km normamps=234.30
New "Linecode.14-31A_2" nphases=2 basefreq=60 r1=0.4860 x1=0.5640 units=km normamps=234.30
New "Linecode.14-31A_3" nphases=3 basefreq=60 r1=0.4860 x1=0.5640 units=km normamps=234.30
New "Linecode.14-31A_4" nphases=4 basefreq=60 r1=0.4860 x1=0.5640 units=km normamps=234.30

New "Linecode.143-31M_1" nphases=1 basefreq=60 r1=0.1420 x1=0.1300 units=km normamps=234.00
New "Linecode.143-31M_2" nphases=2 basefreq=60 r1=0.1420 x1=0.1300 units=km normamps=234.00
New "Linecode.143-31M_3" nphases=3 basefreq=60 r1=0.1420 x1=0.1300 units=km normamps=234.00
New "Linecode.143-31M_4" nphases=4 basefreq=60 r1=0.1420 x1=0.1300 units=km normamps=234.00

New "Linecode.144-31M_1" nphases=1 basefreq=60 r1=0.1140 x1=0.1300 units=km normamps=263.00
New "Linecode.144-31M_2" nphases=2 basefreq=60 r1=0.1140 x1=0.1300 units=km normamps=263.00
New "Linecode.144-31M_3" nphases=3 basefreq=60 r1=0.1140 x1=0.1300 units=km normamps=263.00
New "Linecode.144-31M_4" nphases=4 basefreq=60 r1=0.1140 x1=0.1300 units=km normamps=263.00

New "Linecode.145-31M_1" nphases=1 basefreq=60 r1=0.0870 x1=0.1300 units=km normamps=303.00
New "Linecode.145-31M_2" nphases=2 basefreq=60 r1=0.0870 x1=0.1300 units=km normamps=303.00
New "Linecode.145-31M_3" nphases=3 basefreq=60 r1=0.0870 x1=0.1300 units=km normamps=303.00
New "Linecode.145-31M_4" nphases=4 basefreq=60 r1=0.0870 x1=0.1300 units=km normamps=303.00

New "Linecode.14-61A_1" nphases=1 basefreq=60 r1=0.4860 x1=0.5640 units=km normamps=234.30
New "Linecode.14-61A_2" nphases=2 basefreq=60 r1=0.4860 x1=0.5640 units=km normamps=234.30
New "Linecode.14-61A_3" nphases=3 basefreq=60 r1=0.4860 x1=0.5640 units=km normamps=234.30
New "Linecode.14-61A_4" nphases=4 basefreq=60 r1=0.4860 x1=0.5640 units=km normamps=234.30

New "Linecode.146-51M_1" nphases=1 basefreq=60 r1=0.0560 x1=0.1200 units=km normamps=382.00
New "Linecode.146-51M_2" nphases=2 basefreq=60 r1=0.0560 x1=0.1200 units=km normamps=382.00
New "Linecode.146-51M_3" nphases=3 basefreq=60 r1=0.0560 x1=0.1200 units=km normamps=382.00
New "Linecode.146-51M_4" nphases=4 basefreq=60 r1=0.0560 x1=0.1200 units=km normamps=382.00

New "Linecode.14-71A_1" nphases=1 basefreq=60 r1=0.4860 x1=0.5640 units=km normamps=234.30
New "Linecode.14-71A_2" nphases=2 basefreq=60 r1=0.4860 x1=0.5640 units=km normamps=234.30
New "Linecode.14-71A_3" nphases=3 basefreq=60 r1=0.4860 x1=0.5640 units=km normamps=234.30
New "Linecode.14-71A_4" nphases=4 basefreq=60 r1=0.4860 x1=0.5640 units=km normamps=234.30

New "Linecode.15-61A_1" nphases=1 basefreq=60 r1=0.3860 x1=0.4210 units=km normamps=396.00
New "Linecode.15-61A_2" nphases=2 basefreq=60 r1=0.3860 x1=0.4210 units=km normamps=396.00
New "Linecode.15-61A_3" nphases=3 basefreq=60 r1=0.3860 x1=0.4210 units=km normamps=396.00
New "Linecode.15-61A_4" nphases=4 basefreq=60 r1=0.3860 x1=0.4210 units=km normamps=396.00

New "Linecode.15-71B_1" nphases=1 basefreq=60 r1=0.4860 x1=0.4400 units=km normamps=235.00
New "Linecode.15-71B_2" nphases=2 basefreq=60 r1=0.4860 x1=0.4400 units=km normamps=235.00
New "Linecode.15-71B_3" nphases=3 basefreq=60 r1=0.4860 x1=0.4400 units=km normamps=235.00
New "Linecode.15-71B_4" nphases=4 basefreq=60 r1=0.4860 x1=0.4400 units=km normamps=235.00

New "Linecode.1-61A_1" nphases=1 basefreq=60 r1=0.1950 x1=0.4570 units=km normamps=451.80
New "Linecode.1-61A_2" nphases=2 basefreq=60 r1=0.1950 x1=0.4570 units=km normamps=451.80
New "Linecode.1-61A_3" nphases=3 basefreq=60 r1=0.1950 x1=0.4570 units=km normamps=451.80
New "Linecode.1-61A_4" nphases=4 basefreq=60 r1=0.1950 x1=0.4570 units=km normamps=451.80

New "Linecode.16-61A_1" nphases=1 basefreq=60 r1=0.2170 x1=0.4610 units=km normamps=418.40
New "Linecode.16-61A_2" nphases=2 basefreq=60 r1=0.2170 x1=0.4610 units=km normamps=418.40
New "Linecode.16-61A_3" nphases=3 basefreq=60 r1=0.2170 x1=0.4610 units=km normamps=418.40
New "Linecode.16-61A_4" nphases=4 basefreq=60 r1=0.2170 x1=0.4610 units=km normamps=418.40

New "Linecode.16-71A_1" nphases=1 basefreq=60 r1=0.2170 x1=0.4610 units=km normamps=418.40
New "Linecode.16-71A_2" nphases=2 basefreq=60 r1=0.2170 x1=0.4610 units=km normamps=418.40
New "Linecode.16-71A_3" nphases=3 basefreq=60 r1=0.2170 x1=0.4610 units=km normamps=418.40
New "Linecode.16-71A_4" nphases=4 basefreq=60 r1=0.2170 x1=0.4610 units=km normamps=418.40

New "Linecode.18-71B_1" nphases=1 basefreq=60 r1=0.3060 x1=0.4200 units=km normamps=314.00
New "Linecode.18-71B_2" nphases=2 basefreq=60 r1=0.3060 x1=0.4200 units=km normamps=314.00
New "Linecode.18-71B_3" nphases=3 basefreq=60 r1=0.3060 x1=0.4200 units=km normamps=314.00
New "Linecode.18-71B_4" nphases=4 basefreq=60 r1=0.3060 x1=0.4200 units=km normamps=314.00

New "Linecode.22-71B_1" nphases=1 basefreq=60 r1=0.9750 x1=0.4700 units=km normamps=152.00
New "Linecode.22-71B_2" nphases=2 basefreq=60 r1=0.9750 x1=0.4700 units=km normamps=152.00
New "Linecode.22-71B_3" nphases=3 basefreq=60 r1=0.9750 x1=0.4700 units=km normamps=152.00
New "Linecode.22-71B_4" nphases=4 basefreq=60 r1=0.9750 x1=0.4700 units=km normamps=152.00

New "Linecode.22-71N_1" nphases=1 basefreq=60 r1=0.9750 x1=0.4700 units=km normamps=152.00
New "Linecode.22-71N_2" nphases=2 basefreq=60 r1=0.9750 x1=0.4700 units=km normamps=152.00
New "Linecode.22-71N_3" nphases=3 basefreq=60 r1=0.9750 x1=0.4700 units=km normamps=152.00
New "Linecode.22-71N_4" nphases=4 basefreq=60 r1=0.9750 x1=0.4700 units=km normamps=152.00

New "Linecode.2-31A_1" nphases=1 basefreq=60 r1=0.1380 x1=0.4200 units=km normamps=645.00
New "Linecode.2-31A_2" nphases=2 basefreq=60 r1=0.1380 x1=0.4200 units=km normamps=645.00
New "Linecode.2-31A_3" nphases=3 basefreq=60 r1=0.1380 x1=0.4200 units=km normamps=645.00
New "Linecode.2-31A_4" nphases=4 basefreq=60 r1=0.1380 x1=0.4200 units=km normamps=645.00

New "Linecode.2-31M_1" nphases=1 basefreq=60 r1=0.2450 x1=0.4200 units=km normamps=362.00
New "Linecode.2-31M_2" nphases=2 basefreq=60 r1=0.2450 x1=0.4200 units=km normamps=362.00
New "Linecode.2-31M_3" nphases=3 basefreq=60 r1=0.2450 x1=0.4200 units=km normamps=362.00
New "Linecode.2-31M_4" nphases=4 basefreq=60 r1=0.2450 x1=0.4200 units=km normamps=362.00

New "Linecode.23-71B_1" nphases=1 basefreq=60 r1=0.6130 x1=0.4500 units=km normamps=203.00
New "Linecode.23-71B_2" nphases=2 basefreq=60 r1=0.6130 x1=0.4500 units=km normamps=203.00
New "Linecode.23-71B_3" nphases=3 basefreq=60 r1=0.6130 x1=0.4500 units=km normamps=203.00
New "Linecode.23-71B_4" nphases=4 basefreq=60 r1=0.6130 x1=0.4500 units=km normamps=203.00

New "Linecode.23-71N_1" nphases=1 basefreq=60 r1=0.6130 x1=0.4500 units=km normamps=203.00
New "Linecode.23-71N_2" nphases=2 basefreq=60 r1=0.6130 x1=0.4500 units=km normamps=203.00
New "Linecode.23-71N_3" nphases=3 basefreq=60 r1=0.6130 x1=0.4500 units=km normamps=203.00
New "Linecode.23-71N_4" nphases=4 basefreq=60 r1=0.6130 x1=0.4500 units=km normamps=203.00

New "Linecode.24-71N_1" nphases=1 basefreq=60 r1=0.4860 x1=0.4400 units=km normamps=235.00
New "Linecode.24-71N_2" nphases=2 basefreq=60 r1=0.4860 x1=0.4400 units=km normamps=235.00
New "Linecode.24-71N_3" nphases=3 basefreq=60 r1=0.4860 x1=0.4400 units=km normamps=235.00
New "Linecode.24-71N_4" nphases=4 basefreq=60 r1=0.4860 x1=0.4400 units=km normamps=235.00

New "Linecode.2-61A_1" nphases=1 basefreq=60 r1=0.1380 x1=0.4020 units=km normamps=645.00
New "Linecode.2-61A_2" nphases=2 basefreq=60 r1=0.1380 x1=0.4020 units=km normamps=645.00
New "Linecode.2-61A_3" nphases=3 basefreq=60 r1=0.1380 x1=0.4020 units=km normamps=645.00
New "Linecode.2-61A_4" nphases=4 basefreq=60 r1=0.1380 x1=0.4020 units=km normamps=645.00

New "Linecode.2-71A_1" nphases=1 basefreq=60 r1=0.1380 x1=0.4020 units=km normamps=645.00
New "Linecode.2-71A_2" nphases=2 basefreq=60 r1=0.1380 x1=0.4020 units=km normamps=645.00
New "Linecode.2-71A_3" nphases=3 basefreq=60 r1=0.1380 x1=0.4020 units=km normamps=645.00
New "Linecode.2-71A_4" nphases=4 basefreq=60 r1=0.1380 x1=0.4020 units=km normamps=645.00

New "Linecode.29-31M_1" nphases=1 basefreq=60 r1=1.5510 x1=0.4900 units=km normamps=114.00
New "Linecode.29-31M_2" nphases=2 basefreq=60 r1=1.5510 x1=0.4900 units=km normamps=114.00
New "Linecode.29-31M_3" nphases=3 basefreq=60 r1=1.5510 x1=0.4900 units=km normamps=114.00
New "Linecode.29-31M_4" nphases=4 basefreq=60 r1=1.5510 x1=0.4900 units=km normamps=114.00

New "Linecode.29-71B_1" nphases=1 basefreq=60 r1=1.5510 x1=0.4900 units=km normamps=114.00
New "Linecode.29-71B_2" nphases=2 basefreq=60 r1=1.5510 x1=0.4900 units=km normamps=114.00
New "Linecode.29-71B_3" nphases=3 basefreq=60 r1=1.5510 x1=0.4900 units=km normamps=114.00
New "Linecode.29-71B_4" nphases=4 basefreq=60 r1=1.5510 x1=0.4900 units=km normamps=114.00

New "Linecode.30-31M_1" nphases=1 basefreq=60 r1=0.6130 x1=0.4500 units=km normamps=203.00
New "Linecode.30-31M_2" nphases=2 basefreq=60 r1=0.6130 x1=0.4500 units=km normamps=203.00
New "Linecode.30-31M_3" nphases=3 basefreq=60 r1=0.6130 x1=0.4500 units=km normamps=203.00
New "Linecode.30-31M_4" nphases=4 basefreq=60 r1=0.6130 x1=0.4500 units=km normamps=203.00

New "Linecode.31-31M_1" nphases=1 basefreq=60 r1=0.4860 x1=0.4400 units=km normamps=235.00
New "Linecode.31-31M_2" nphases=2 basefreq=60 r1=0.4860 x1=0.4400 units=km normamps=235.00
New "Linecode.31-31M_3" nphases=3 basefreq=60 r1=0.4860 x1=0.4400 units=km normamps=235.00
New "Linecode.31-31M_4" nphases=4 basefreq=60 r1=0.4860 x1=0.4400 units=km normamps=235.00

New "Linecode.32-31M_1" nphases=1 basefreq=60 r1=0.3060 x1=0.4200 units=km normamps=314.00
New "Linecode.32-31M_2" nphases=2 basefreq=60 r1=0.3060 x1=0.4200 units=km normamps=314.00
New "Linecode.32-31M_3" nphases=3 basefreq=60 r1=0.3060 x1=0.4200 units=km normamps=314.00
New "Linecode.32-31M_4" nphases=4 basefreq=60 r1=0.3060 x1=0.4200 units=km normamps=314.00

New "Linecode.3-31A_1" nphases=1 basefreq=60 r1=0.2450 x1=0.4980 units=km normamps=384.90
New "Linecode.3-31A_2" nphases=2 basefreq=60 r1=0.2450 x1=0.4980 units=km normamps=384.90
New "Linecode.3-31A_3" nphases=3 basefreq=60 r1=0.2450 x1=0.4980 units=km normamps=384.90
New "Linecode.3-31A_4" nphases=4 basefreq=60 r1=0.2450 x1=0.4980 units=km normamps=384.90

New "Linecode.33-31M_1" nphases=1 basefreq=60 r1=0.9750 x1=0.4700 units=km normamps=152.00
New "Linecode.33-31M_2" nphases=2 basefreq=60 r1=0.9750 x1=0.4700 units=km normamps=152.00
New "Linecode.33-31M_3" nphases=3 basefreq=60 r1=0.9750 x1=0.4700 units=km normamps=152.00
New "Linecode.33-31M_4" nphases=4 basefreq=60 r1=0.9750 x1=0.4700 units=km normamps=152.00

New "Linecode.33-71B_1" nphases=1 basefreq=60 r1=0.9750 x1=0.4700 units=km normamps=152.00
New "Linecode.33-71B_2" nphases=2 basefreq=60 r1=0.9750 x1=0.4700 units=km normamps=152.00
New "Linecode.33-71B_3" nphases=3 basefreq=60 r1=0.9750 x1=0.4700 units=km normamps=152.00
New "Linecode.33-71B_4" nphases=4 basefreq=60 r1=0.9750 x1=0.4700 units=km normamps=152.00

New "Linecode.33-71N_1" nphases=1 basefreq=60 r1=0.9750 x1=0.4700 units=km normamps=152.00
New "Linecode.33-71N_2" nphases=2 basefreq=60 r1=0.9750 x1=0.4700 units=km normamps=152.00
New "Linecode.33-71N_3" nphases=3 basefreq=60 r1=0.9750 x1=0.4700 units=km normamps=152.00
New "Linecode.33-71N_4" nphases=4 basefreq=60 r1=0.9750 x1=0.4700 units=km normamps=152.00

New "Linecode.34-14M_1" nphases=1 basefreq=60 r1=0.2890 x1=0.2700 units=km normamps=401.00
New "Linecode.34-14M_2" nphases=2 basefreq=60 r1=0.2890 x1=0.2700 units=km normamps=401.00
New "Linecode.34-14M_3" nphases=3 basefreq=60 r1=0.2890 x1=0.2700 units=km normamps=401.00
New "Linecode.34-14M_4" nphases=4 basefreq=60 r1=0.2890 x1=0.2700 units=km normamps=401.00

New "Linecode.35-14M_1" nphases=1 basefreq=60 r1=0.2360 x1=0.2700 units=km normamps=456.00
New "Linecode.35-14M_2" nphases=2 basefreq=60 r1=0.2360 x1=0.2700 units=km normamps=456.00
New "Linecode.35-14M_3" nphases=3 basefreq=60 r1=0.2360 x1=0.2700 units=km normamps=456.00
New "Linecode.35-14M_4" nphases=4 basefreq=60 r1=0.2360 x1=0.2700 units=km normamps=456.00

New "Linecode.3-61A_1" nphases=1 basefreq=60 r1=0.2450 x1=0.4980 units=km normamps=384.90
New "Linecode.3-61A_2" nphases=2 basefreq=60 r1=0.2450 x1=0.4980 units=km normamps=384.90
New "Linecode.3-61A_3" nphases=3 basefreq=60 r1=0.2450 x1=0.4980 units=km normamps=384.90
New "Linecode.3-61A_4" nphases=4 basefreq=60 r1=0.2450 x1=0.4980 units=km normamps=384.90

New "Linecode.36-14M_1" nphases=1 basefreq=60 r1=0.1880 x1=0.2600 units=km normamps=525.00
New "Linecode.36-14M_2" nphases=2 basefreq=60 r1=0.1880 x1=0.2600 units=km normamps=525.00
New "Linecode.36-14M_3" nphases=3 basefreq=60 r1=0.1880 x1=0.2600 units=km normamps=525.00
New "Linecode.36-14M_4" nphases=4 basefreq=60 r1=0.1880 x1=0.2600 units=km normamps=525.00

New "Linecode.3-71A_1" nphases=1 basefreq=60 r1=0.2450 x1=0.4980 units=km normamps=384.90
New "Linecode.3-71A_2" nphases=2 basefreq=60 r1=0.2450 x1=0.4980 units=km normamps=384.90
New "Linecode.3-71A_3" nphases=3 basefreq=60 r1=0.2450 x1=0.4980 units=km normamps=384.90
New "Linecode.3-71A_4" nphases=4 basefreq=60 r1=0.2450 x1=0.4980 units=km normamps=384.90

New "Linecode.3-71N_1" nphases=1 basefreq=60 r1=2.3890 x1=0.5200 units=km normamps=90.00
New "Linecode.3-71N_2" nphases=2 basefreq=60 r1=2.3890 x1=0.5200 units=km normamps=90.00
New "Linecode.3-71N_3" nphases=3 basefreq=60 r1=2.3890 x1=0.5200 units=km normamps=90.00
New "Linecode.3-71N_4" nphases=4 basefreq=60 r1=2.3890 x1=0.5200 units=km normamps=90.00

New "Linecode.38-14M_1" nphases=1 basefreq=60 r1=0.5060 x1=0.3100 units=km normamps=282.00
New "Linecode.38-14M_2" nphases=2 basefreq=60 r1=0.5060 x1=0.3100 units=km normamps=282.00
New "Linecode.38-14M_3" nphases=3 basefreq=60 r1=0.5060 x1=0.3100 units=km normamps=282.00
New "Linecode.38-14M_4" nphases=4 basefreq=60 r1=0.5060 x1=0.3100 units=km normamps=282.00

New "Linecode.39-31M_1" nphases=1 basefreq=60 r1=1.5510 x1=0.4700 units=km normamps=125.00
New "Linecode.39-31M_2" nphases=2 basefreq=60 r1=1.5510 x1=0.4700 units=km normamps=125.00
New "Linecode.39-31M_3" nphases=3 basefreq=60 r1=1.5510 x1=0.4700 units=km normamps=125.00
New "Linecode.39-31M_4" nphases=4 basefreq=60 r1=1.5510 x1=0.4700 units=km normamps=125.00

New "Linecode.39-71B_1" nphases=1 basefreq=60 r1=1.5510 x1=0.4700 units=km normamps=125.00
New "Linecode.39-71B_2" nphases=2 basefreq=60 r1=1.5510 x1=0.4700 units=km normamps=125.00
New "Linecode.39-71B_3" nphases=3 basefreq=60 r1=1.5510 x1=0.4700 units=km normamps=125.00
New "Linecode.39-71B_4" nphases=4 basefreq=60 r1=1.5510 x1=0.4700 units=km normamps=125.00

New "Linecode.39-71N_1" nphases=1 basefreq=60 r1=1.5510 x1=0.4700 units=km normamps=125.00
New "Linecode.39-71N_2" nphases=2 basefreq=60 r1=1.5510 x1=0.4700 units=km normamps=125.00
New "Linecode.39-71N_3" nphases=3 basefreq=60 r1=1.5510 x1=0.4700 units=km normamps=125.00
New "Linecode.39-71N_4" nphases=4 basefreq=60 r1=1.5510 x1=0.4700 units=km normamps=125.00

New "Linecode.40-31M_1" nphases=1 basefreq=60 r1=0.6130 x1=0.4400 units=km normamps=220.00
New "Linecode.40-31M_2" nphases=2 basefreq=60 r1=0.6130 x1=0.4400 units=km normamps=220.00
New "Linecode.40-31M_3" nphases=3 basefreq=60 r1=0.6130 x1=0.4400 units=km normamps=220.00
New "Linecode.40-31M_4" nphases=4 basefreq=60 r1=0.6130 x1=0.4400 units=km normamps=220.00

New "Linecode.41-31M_1" nphases=1 basefreq=60 r1=0.4860 x1=0.4300 units=km normamps=250.00
New "Linecode.41-31M_2" nphases=2 basefreq=60 r1=0.4860 x1=0.4300 units=km normamps=250.00
New "Linecode.41-31M_3" nphases=3 basefreq=60 r1=0.4860 x1=0.4300 units=km normamps=250.00
New "Linecode.41-31M_4" nphases=4 basefreq=60 r1=0.4860 x1=0.4300 units=km normamps=250.00

New "Linecode.42-31M_1" nphases=1 basefreq=60 r1=0.3060 x1=0.4100 units=km normamps=330.00
New "Linecode.42-31M_2" nphases=2 basefreq=60 r1=0.3060 x1=0.4100 units=km normamps=330.00
New "Linecode.42-31M_3" nphases=3 basefreq=60 r1=0.3060 x1=0.4100 units=km normamps=330.00
New "Linecode.42-31M_4" nphases=4 basefreq=60 r1=0.3060 x1=0.4100 units=km normamps=330.00

New "Linecode.43-71B_1" nphases=1 basefreq=60 r1=0.9750 x1=0.4700 units=km normamps=152.00
New "Linecode.43-71B_2" nphases=2 basefreq=60 r1=0.9750 x1=0.4700 units=km normamps=152.00
New "Linecode.43-71B_3" nphases=3 basefreq=60 r1=0.9750 x1=0.4700 units=km normamps=152.00
New "Linecode.43-71B_4" nphases=4 basefreq=60 r1=0.9750 x1=0.4700 units=km normamps=152.00

New "Linecode.43-71N_1" nphases=1 basefreq=60 r1=1.5510 x1=0.4700 units=km normamps=152.00
New "Linecode.43-71N_2" nphases=2 basefreq=60 r1=1.5510 x1=0.4700 units=km normamps=152.00
New "Linecode.43-71N_3" nphases=3 basefreq=60 r1=1.5510 x1=0.4700 units=km normamps=152.00
New "Linecode.43-71N_4" nphases=4 basefreq=60 r1=1.5510 x1=0.4700 units=km normamps=152.00

New "Linecode.443-71B_1" nphases=1 basefreq=60 r1=0.9750 x1=0.4700 units=km normamps=152.00
New "Linecode.443-71B_2" nphases=2 basefreq=60 r1=0.9750 x1=0.4700 units=km normamps=152.00
New "Linecode.443-71B_3" nphases=3 basefreq=60 r1=0.9750 x1=0.4700 units=km normamps=152.00
New "Linecode.443-71B_4" nphases=4 basefreq=60 r1=0.9750 x1=0.4700 units=km normamps=152.00

New "Linecode.443-71N_1" nphases=1 basefreq=60 r1=0.9750 x1=0.4700 units=km normamps=152.00
New "Linecode.443-71N_2" nphases=2 basefreq=60 r1=0.9750 x1=0.4700 units=km normamps=152.00
New "Linecode.443-71N_3" nphases=3 basefreq=60 r1=0.9750 x1=0.4700 units=km normamps=152.00
New "Linecode.443-71N_4" nphases=4 basefreq=60 r1=0.9750 x1=0.4700 units=km normamps=152.00

New "Linecode.444-71N_1" nphases=1 basefreq=60 r1=1.5510 x1=0.4900 units=km normamps=114.00
New "Linecode.444-71N_2" nphases=2 basefreq=60 r1=1.5510 x1=0.4900 units=km normamps=114.00
New "Linecode.444-71N_3" nphases=3 basefreq=60 r1=1.5510 x1=0.4900 units=km normamps=114.00
New "Linecode.444-71N_4" nphases=4 basefreq=60 r1=1.5510 x1=0.4900 units=km normamps=114.00

New "Linecode.445-71B_1" nphases=1 basefreq=60 r1=0.6130 x1=0.4500 units=km normamps=203.00
New "Linecode.445-71B_2" nphases=2 basefreq=60 r1=0.6130 x1=0.4500 units=km normamps=203.00
New "Linecode.445-71B_3" nphases=3 basefreq=60 r1=0.6130 x1=0.4500 units=km normamps=203.00
New "Linecode.445-71B_4" nphases=4 basefreq=60 r1=0.6130 x1=0.4500 units=km normamps=203.00

New "Linecode.44-71B_1" nphases=1 basefreq=60 r1=0.9750 x1=0.4700 units=km normamps=152.00
New "Linecode.44-71B_2" nphases=2 basefreq=60 r1=0.9750 x1=0.4700 units=km normamps=152.00
New "Linecode.44-71B_3" nphases=3 basefreq=60 r1=0.9750 x1=0.4700 units=km normamps=152.00
New "Linecode.44-71B_4" nphases=4 basefreq=60 r1=0.9750 x1=0.4700 units=km normamps=152.00

New "Linecode.448-71B_1" nphases=1 basefreq=60 r1=0.4860 x1=0.4400 units=km normamps=235.00
New "Linecode.448-71B_2" nphases=2 basefreq=60 r1=0.4860 x1=0.4400 units=km normamps=235.00
New "Linecode.448-71B_3" nphases=3 basefreq=60 r1=0.4860 x1=0.4400 units=km normamps=235.00
New "Linecode.448-71B_4" nphases=4 basefreq=60 r1=0.4860 x1=0.4400 units=km normamps=235.00

New "Linecode.451-71B_1" nphases=1 basefreq=60 r1=0.6130 x1=0.4500 units=km normamps=203.00
New "Linecode.451-71B_2" nphases=2 basefreq=60 r1=0.6130 x1=0.4500 units=km normamps=203.00
New "Linecode.451-71B_3" nphases=3 basefreq=60 r1=0.6130 x1=0.4500 units=km normamps=203.00
New "Linecode.451-71B_4" nphases=4 basefreq=60 r1=0.6130 x1=0.4500 units=km normamps=203.00

New "Linecode.452-71B_1" nphases=1 basefreq=60 r1=0.4860 x1=0.4400 units=km normamps=235.00
New "Linecode.452-71B_2" nphases=2 basefreq=60 r1=0.4860 x1=0.4400 units=km normamps=235.00
New "Linecode.452-71B_3" nphases=3 basefreq=60 r1=0.4860 x1=0.4400 units=km normamps=235.00
New "Linecode.452-71B_4" nphases=4 basefreq=60 r1=0.4860 x1=0.4400 units=km normamps=235.00

New "Linecode.457-71B_1" nphases=1 basefreq=60 r1=2.3890 x1=0.5200 units=km normamps=90.00
New "Linecode.457-71B_2" nphases=2 basefreq=60 r1=2.3890 x1=0.5200 units=km normamps=90.00
New "Linecode.457-71B_3" nphases=3 basefreq=60 r1=2.3890 x1=0.5200 units=km normamps=90.00
New "Linecode.457-71B_4" nphases=4 basefreq=60 r1=2.3890 x1=0.5200 units=km normamps=90.00

New "Linecode.458-71B_1" nphases=1 basefreq=60 r1=0.9750 x1=0.4700 units=km normamps=152.00
New "Linecode.458-71B_2" nphases=2 basefreq=60 r1=0.9750 x1=0.4700 units=km normamps=152.00
New "Linecode.458-71B_3" nphases=3 basefreq=60 r1=0.9750 x1=0.4700 units=km normamps=152.00
New "Linecode.458-71B_4" nphases=4 basefreq=60 r1=0.9750 x1=0.4700 units=km normamps=152.00

New "Linecode.460-71B_1" nphases=1 basefreq=60 r1=0.6130 x1=0.4500 units=km normamps=203.00
New "Linecode.460-71B_2" nphases=2 basefreq=60 r1=0.6130 x1=0.4500 units=km normamps=203.00
New "Linecode.460-71B_3" nphases=3 basefreq=60 r1=0.6130 x1=0.4500 units=km normamps=203.00
New "Linecode.460-71B_4" nphases=4 basefreq=60 r1=0.6130 x1=0.4500 units=km normamps=203.00

New "Linecode.461-71B_1" nphases=1 basefreq=60 r1=0.9750 x1=0.4700 units=km normamps=152.00
New "Linecode.461-71B_2" nphases=2 basefreq=60 r1=0.9750 x1=0.4700 units=km normamps=152.00
New "Linecode.461-71B_3" nphases=3 basefreq=60 r1=0.9750 x1=0.4700 units=km normamps=152.00
New "Linecode.461-71B_4" nphases=4 basefreq=60 r1=0.9750 x1=0.4700 units=km normamps=152.00

New "Linecode.462-71B_1" nphases=1 basefreq=60 r1=1.5510 x1=0.4900 units=km normamps=114.00
New "Linecode.462-71B_2" nphases=2 basefreq=60 r1=1.5510 x1=0.4900 units=km normamps=114.00
New "Linecode.462-71B_3" nphases=3 basefreq=60 r1=1.5510 x1=0.4900 units=km normamps=114.00
New "Linecode.462-71B_4" nphases=4 basefreq=60 r1=1.5510 x1=0.4900 units=km normamps=114.00

New "Linecode.464-71B_1" nphases=1 basefreq=60 r1=0.6130 x1=0.4500 units=km normamps=203.00
New "Linecode.464-71B_2" nphases=2 basefreq=60 r1=0.6130 x1=0.4500 units=km normamps=203.00
New "Linecode.464-71B_3" nphases=3 basefreq=60 r1=0.6130 x1=0.4500 units=km normamps=203.00
New "Linecode.464-71B_4" nphases=4 basefreq=60 r1=0.6130 x1=0.4500 units=km normamps=203.00

New "Linecode.470-71B_1" nphases=1 basefreq=60 r1=0.6130 x1=0.4500 units=km normamps=203.00
New "Linecode.470-71B_2" nphases=2 basefreq=60 r1=0.6130 x1=0.4500 units=km normamps=203.00
New "Linecode.470-71B_3" nphases=3 basefreq=60 r1=0.6130 x1=0.4500 units=km normamps=203.00
New "Linecode.470-71B_4" nphases=4 basefreq=60 r1=0.6130 x1=0.4500 units=km normamps=203.00

New "Linecode.4-71B_1" nphases=1 basefreq=60 r1=2.3890 x1=0.5200 units=km normamps=90.00
New "Linecode.4-71B_2" nphases=2 basefreq=60 r1=2.3890 x1=0.5200 units=km normamps=90.00
New "Linecode.4-71B_3" nphases=3 basefreq=60 r1=2.3890 x1=0.5200 units=km normamps=90.00
New "Linecode.4-71B_4" nphases=4 basefreq=60 r1=2.3890 x1=0.5200 units=km normamps=90.00

...